Version 4
SHEET 1 4300 1232
SYMBOL inoise 1328 -1664 R0
SYMATTR InstName U1
SYMATTR Value white=1p
SYMATTR Value2 flicker=10p
SYMATTR SpiceLine flickerfreq=1
TEXT 1640 -1792 Left 2 ;1 pA/sqrt(Hz)\nWhite current noise
TEXT 1640 -1536 Left 2 ;10 pA/sqrt(Hz) @ 1 Hz\nFlicker current noise (1/f)
TEXT 1248 -1792 Left 2 ;Current Noise Source
TEXT 1656 -1480 Left 2 ;-> 100 pA/sqrt(Hz) @ 10 mHz\n-> 1 pA/sqrt(Hz) @ 100 Hz\n-> (-10 dB/decade)
TEXT 1488 -1600 VRight 2 ;Example values ->
TEXT 1544 -1680 Left 2 ;Units: A/sqrt(Hz)
TEXT 1544 -1632 Left 2 ;Unit: Hz
LINE Normal 1632 -1792 1632 -1792 2
LINE Normal 1536 -1616 1632 -1536
LINE Normal 1632 -1792 1536 -1712
LINE Normal 1632 -1792 1632 -1792 2
RECTANGLE Normal 1536 -1616 1376 -1680
RECTANGLE Normal 1536 -1712 1376 -1680
RECTANGLE Normal 1808 -1520 1632 -1552 2
RECTANGLE Normal 1904 -1520 1840 -1552 2
RECTANGLE Normal 1808 -1776 1632 -1808 2
