Version 4
SHEET 1 4300 1232
WIRE 1728 -1632 1408 -1632
WIRE 1840 -1632 1728 -1632
WIRE 1728 -1616 1728 -1632
WIRE 1952 -1616 1904 -1616
WIRE 2080 -1616 1952 -1616
WIRE 1840 -1600 1808 -1600
WIRE 1408 -1552 1408 -1632
WIRE 1808 -1520 1808 -1600
WIRE 1952 -1520 1952 -1616
WIRE 1952 -1520 1808 -1520
FLAG 1408 -1472 0
FLAG 2080 -1616 OUT
FLAG 1728 -1536 0
SYMBOL Opamps\\opamp 1872 -1552 M180
SYMATTR InstName U2
SYMBOL voltage 1408 -1568 R0
WINDOW 123 0 0 Left 0
WINDOW 39 24 44 Left 2
SYMATTR SpiceLine Rser=1G
SYMATTR InstName V1
SYMATTR Value 0
SYMBOL inoise 1728 -1600 R180
WINDOW 0 48 -32 Left 2
WINDOW 3 24 -64 Left 2
WINDOW 123 24 -106 Left 2
WINDOW 39 24 -85 Left 2
SYMATTR InstName U1
SYMATTR Value white=1p
SYMATTR Value2 flicker=10p
SYMATTR SpiceLine flickerfreq=1
TEXT 1552 -1416 Left 2 !.noise V(OUT) V1 dec 100 10m 1e6
TEXT 1784 -1712 Left 2 !.lib opamp.sub
